$# LS-DYNA Keyword file created by LS-PrePost(R) V4.9.8-19Sep2022 
$# Created on Nov-20-2022 (11:10:35)
*KEYWORD   
*CONTROL_SHELL
      20.0         0        -1         1         2         2         1         0
*CONTROL_TERMINATION
       0.5         0       0.0       0.01.000000E8         0
*DATABASE_BINARY_D3PLOT
      0.01         0         0         0         0
         0                                       0         0
*BOUNDARY_SPC_SET
         1         0         0         0         0         0         0         0
*SET_NODE_LIST
         1       0.0       0.0       0.0       0.0MECH      1                  
         1         2         3         4         5         6         7         8
         9        10        11        12        13        14        15        16
        17        18        19        20        21        22        23        24
        25        26        27        28        29        30        31        32
        33        34        35        36        37        38        39        40
        41        42        43        44        45        46        47        48
        49        50        51      5101      5102      5103      5104      5105
      5106      5107      5108      5109      5110      5111      5112      5113
      5114      5115      5116      5117      5118      5119      5120      5121
      5122      5123      5124      5125      5126      5127      5128      5129
      5130      5131      5132      5133      5134      5135      5136      5137
      5138      5139      5140      5141      5142      5143      5144      5145
      5146      5147      5148      5149      5150      5151         0         0
*CONTACT_AUTOMATIC_SURFACE_TO_SURFACE
         2         1         3         3                             0         0
       0.0       0.0       0.0       0.0       0.0                 0.01.00000E20
       1.0       1.0                           1.0       1.0       1.0       1.0
*PART
shell_4p
         1         1         1         0         0         0         0         0
*SECTION_SHELL
         1         2     0.833         5       1.0         0         0         1
       0.4       0.4       0.4       0.4       0.0       0.0       0.0         0
*MAT_PLASTIC_KINEMATIC
         12.70000E-6      70.0      0.34     0.267      0.32       0.0
       0.0       0.0      0.28       0.0
*PART
cylindersolid
         2         2         2         0         0         0         0         0
*SECTION_SOLID
         2         1         0                                     0.0       0.0
*MAT_RIGID
         27.80000E-6     200.0       0.3       0.0       0.0       0.0          
       0.0                    
                                                            
*INITIAL_VELOCITY_GENERATION
         2         2       0.0       0.0       0.0    -150.0         0         0
       0.0       0.0       0.0       0.0       0.0       0.0         0         0
*ELEMENT_SOLID
    5001       2    5152    5157    5158    5153    5225    5230    5231    5226
    5002       2    5153    5158    5159    5154    5226    5231    5232    5227
    5003       2    5154    5159    5160    5155    5227    5232    5233    5228
    5004       2    5155    5160    5161    5156    5228    5233    5234    5229
    5005       2    5157    5162    5163    5158    5230    5235    5236    5231
    5006       2    5158    5163    5164    5159    5231    5236    5237    5232
    5007       2    5159    5164    5165    5160    5232    5237    5238    5233
    5008       2    5160    5165    5166    5161    5233    5238    5239    5234
    5009       2    5162    5167    5168    5163    5235    5240    5241    5236
    5010       2    5163    5168    5169    5164    5236    5241    5242    5237
    5011       2    5164    5169    5170    5165    5237    5242    5243    5238
    5012       2    5165    5170    5171    5166    5238    5243    5244    5239
    5013       2    5156    5161    5178    5172    5229    5234    5251    5245
    5014       2    5172    5178    5179    5174    5245    5251    5252    5247
    5015       2    5174    5179    5180    5175    5247    5252    5253    5248
    5016       2    5175    5180    5181    5176    5248    5253    5254    5249
    5017       2    5161    5166    5183    5178    5234    5239    5256    5251
    5018       2    5178    5183    5184    5179    5251    5256    5257    5252
    5019       2    5179    5184    5185    5180    5252    5257    5258    5253
    5020       2    5180    5185    5186    5181    5253    5258    5259    5254
$ ... 748 like lines cut
*ELEMENT_SHELL
       1       1      52      53       2       1       0       0       0       0
       2       1      53      54       3       2       0       0       0       0
       3       1      54      55       4       3       0       0       0       0
       4       1      55      56       5       4       0       0       0       0
       5       1      56      57       6       5       0       0       0       0
       6       1      57      58       7       6       0       0       0       0
       7       1      58      59       8       7       0       0       0       0
       8       1      59      60       9       8       0       0       0       0
       9       1      60      61      10       9       0       0       0       0
      10       1      61      62      11      10       0       0       0       0
      11       1      62      63      12      11       0       0       0       0
      12       1      63      64      13      12       0       0       0       0
      13       1      64      65      14      13       0       0       0       0
      14       1      65      66      15      14       0       0       0       0
      15       1      66      67      16      15       0       0       0       0
      16       1      67      68      17      16       0       0       0       0
      17       1      68      69      18      17       0       0       0       0
      18       1      69      70      19      18       0       0       0       0
      19       1      70      71      20      19       0       0       0       0
      20       1      71      72      21      20       0       0       0       0
$ ... 4980 like lines cut
*NODE
       1             0.0             0.0             0.0       0       0
       2             0.0             1.0             0.0       0       0
       3             0.0             2.0             0.0       0       0
       4             0.0             3.0             0.0       0       0
       5             0.0        3.999999             0.0       0       0
       6             0.0             5.0             0.0       0       0
       7             0.0             6.0             0.0       0       0
       8             0.0        6.999999             0.0       0       0
       9             0.0             8.0             0.0       0       0
      10             0.0             9.0             0.0       0       0
      11             0.0        9.999999             0.0       0       0
      12             0.0            11.0             0.0       0       0
      13             0.0            12.0             0.0       0       0
      14             0.0            13.0             0.0       0       0
      15             0.0            14.0             0.0       0       0
      16             0.0            15.0             0.0       0       0
      17             0.0            16.0             0.0       0       0
      18             0.0            17.0             0.0       0       0
      19             0.0            18.0             0.0       0       0
      20             0.0            19.0             0.0       0       0
$ ... 6080 like lines cut
*END
